**** Created by MC2: Version 2010.02.00.a on 2022/02/24, 21:11:02 

************************************************************************
* AUCDL NETLIST:
* 
* LIBRARY NAME:  N65LP_SP_LEAFCELL
* TOP CELL NAME: LEAFCELLS
* VIEW NAME:     SCHEMATIC
* NETLISTED ON:  DEC 22 10:05:16 2009
************************************************************************

************************************************************************
* LIBRARY NAME: N65LP_SP_LEAFCELL
* CELL NAME:    MCB
* VIEW NAME:    SCHEMATIC
************************************************************************
*.BIPOLAR
*.CAPA
*.DIOPERI
*.DIOAREA
*.EQUATION
*.SCALE METER
*.MEGA

.SUBCKT S1AHSF400W40_MIO_HD D G S B
MPCH D G S B PCH L=70N W=1.2u M=6
.ENDS

.SUBCKT S1AHSF400W40_MCB BL BLB VDDI VSSI WL
*.PININFO BL:B BLB:B VDDI:B VSSI:B WL:B
MPCHPU0 VDDI BLB_IN BL_IN VDDI PCHPU_WISR L=0.065U W=0.080U M=1
MPCHPU1 BLB_IN BL_IN VDDI VDDI PCHPU_WISR L=0.065U W=0.080U M=1
MNCHPD1 BLB_IN BL_IN VSSI VSSI NCHPD_WISR L=0.065U W=0.140U M=1
MNCHPD0 VSSI BLB_IN BL_IN VSSI NCHPD_WISR L=0.065U W=0.140U M=1
MNCHPG0 BL_IN WL BL VSSI NCHPG_WISR L=0.075U W=0.090U M=1
MNCHPG1 BLB WL BLB_IN VSSI NCHPG_WISR L=0.075U W=0.090U M=1
.ENDS

************************************************************************
* LIBRARY NAME: N65LP_SP_CHAR
* CELL NAME:    MCB_2X16_SB_CHAR
* VIEW NAME:    SCHEMATIC
************************************************************************

.SUBCKT S1AHSF400W40_MCB_2X16_SB_CHAR BL[0] BL[1] BL[2] BL[3] BL[4] BL[5] BL[6] BL[7] BL[8] 
+ BL[9] BL[10] BL[11] BL[12] BL[13] BL[14] BL[15] BLB[0] BLB[1] BLB[2] BLB[3] 
+ BLB[4] BLB[5] BLB[6] BLB[7] BLB[8] BLB[9] BLB[10] BLB[11] BLB[12] BLB[13] 
+ BLB[14] BLB[15] VDDI VSSI WL[0] WL[1]
*.PININFO WL[0]:I WL[1]:I BL[0]:B BL[1]:B BL[2]:B BL[3]:B BL[4]:B BL[5]:B 
*.PININFO BL[6]:B BL[7]:B BL[8]:B BL[9]:B BL[10]:B BL[11]:B BL[12]:B BL[13]:B 
*.PININFO BL[14]:B BL[15]:B BLB[0]:B BLB[1]:B BLB[2]:B BLB[3]:B BLB[4]:B 
*.PININFO BLB[5]:B BLB[6]:B BLB[7]:B BLB[8]:B BLB[9]:B BLB[10]:B BLB[11]:B 
*.PININFO BLB[12]:B BLB[13]:B BLB[14]:B BLB[15]:B VDDI:B VSSI:B
XMCB_0<0> BL[0] BLB[0] VDDI VSSI WL[0] S1AHSF400W40_MCB
XMCB_0<1> BL[1] BLB[1] VDDI VSSI WL[0] S1AHSF400W40_MCB
XMCB_0<2> BL[2] BLB[2] VDDI VSSI WL[0] S1AHSF400W40_MCB
XMCB_0<3> BL[3] BLB[3] VDDI VSSI WL[0] S1AHSF400W40_MCB
XMCB_0<4> BL[4] BLB[4] VDDI VSSI WL[0] S1AHSF400W40_MCB
XMCB_0<5> BL[5] BLB[5] VDDI VSSI WL[0] S1AHSF400W40_MCB
XMCB_0<6> BL[6] BLB[6] VDDI VSSI WL[0] S1AHSF400W40_MCB
XMCB_0<7> BL[7] BLB[7] VDDI VSSI WL[0] S1AHSF400W40_MCB
XMCB_0<8> BL[8] BLB[8] VDDI VSSI WL[0] S1AHSF400W40_MCB
XMCB_0<9> BL[9] BLB[9] VDDI VSSI WL[0] S1AHSF400W40_MCB
XMCB_0<10> BL[10] BLB[10] VDDI VSSI WL[0] S1AHSF400W40_MCB
XMCB_0<11> BL[11] BLB[11] VDDI VSSI WL[0] S1AHSF400W40_MCB
XMCB_0<12> BL[12] BLB[12] VDDI VSSI WL[0] S1AHSF400W40_MCB
XMCB_0<13> BL[13] BLB[13] VDDI VSSI WL[0] S1AHSF400W40_MCB
XMCB_0<14> BL[14] BLB[14] VDDI VSSI WL[0] S1AHSF400W40_MCB
XMCB_0<15> BL[15] BLB[15] VDDI VSSI WL[0] S1AHSF400W40_MCB
XMCB_1<0> BL[0] BLB[0] VDDI VSSI WL[1] S1AHSF400W40_MCB
XMCB_1<1> BL[1] BLB[1] VDDI VSSI WL[1] S1AHSF400W40_MCB
XMCB_1<2> BL[2] BLB[2] VDDI VSSI WL[1] S1AHSF400W40_MCB
XMCB_1<3> BL[3] BLB[3] VDDI VSSI WL[1] S1AHSF400W40_MCB
XMCB_1<4> BL[4] BLB[4] VDDI VSSI WL[1] S1AHSF400W40_MCB
XMCB_1<5> BL[5] BLB[5] VDDI VSSI WL[1] S1AHSF400W40_MCB
XMCB_1<6> BL[6] BLB[6] VDDI VSSI WL[1] S1AHSF400W40_MCB
XMCB_1<7> BL[7] BLB[7] VDDI VSSI WL[1] S1AHSF400W40_MCB
XMCB_1<8> BL[8] BLB[8] VDDI VSSI WL[1] S1AHSF400W40_MCB
XMCB_1<9> BL[9] BLB[9] VDDI VSSI WL[1] S1AHSF400W40_MCB
XMCB_1<10> BL[10] BLB[10] VDDI VSSI WL[1] S1AHSF400W40_MCB
XMCB_1<11> BL[11] BLB[11] VDDI VSSI WL[1] S1AHSF400W40_MCB
XMCB_1<12> BL[12] BLB[12] VDDI VSSI WL[1] S1AHSF400W40_MCB
XMCB_1<13> BL[13] BLB[13] VDDI VSSI WL[1] S1AHSF400W40_MCB
XMCB_1<14> BL[14] BLB[14] VDDI VSSI WL[1] S1AHSF400W40_MCB
XMCB_1<15> BL[15] BLB[15] VDDI VSSI WL[1] S1AHSF400W40_MCB
.ENDS

************************************************************************
* LIBRARY NAME: N65LP_SP_CHAR
* CELL NAME:    MCB_2X8_SB_CHAR
* VIEW NAME:    SCHEMATIC
************************************************************************

.SUBCKT S1AHSF400W40_MCB_2X8_SB_CHAR BL[0] BL[1] BL[2] BL[3] BL[4] BL[5] BL[6] BL[7] BLB[0] 
+ BLB[1] BLB[2] BLB[3] BLB[4] BLB[5] BLB[6] BLB[7] VDDI VSSI WL[0] WL[1]
*.PININFO WL[0]:I WL[1]:I BL[0]:B BL[1]:B BL[2]:B BL[3]:B BL[4]:B BL[5]:B 
*.PININFO BL[6]:B BL[7]:B BLB[0]:B BLB[1]:B BLB[2]:B BLB[3]:B BLB[4]:B 
*.PININFO BLB[5]:B BLB[6]:B BLB[7]:B VDDI:B VSSI:B
XMCB_0<0> BL[0] BLB[0] VDDI VSSI WL[0] S1AHSF400W40_MCB
XMCB_0<1> BL[1] BLB[1] VDDI VSSI WL[0] S1AHSF400W40_MCB
XMCB_0<2> BL[2] BLB[2] VDDI VSSI WL[0] S1AHSF400W40_MCB
XMCB_0<3> BL[3] BLB[3] VDDI VSSI WL[0] S1AHSF400W40_MCB
XMCB_0<4> BL[4] BLB[4] VDDI VSSI WL[0] S1AHSF400W40_MCB
XMCB_0<5> BL[5] BLB[5] VDDI VSSI WL[0] S1AHSF400W40_MCB
XMCB_0<6> BL[6] BLB[6] VDDI VSSI WL[0] S1AHSF400W40_MCB
XMCB_0<7> BL[7] BLB[7] VDDI VSSI WL[0] S1AHSF400W40_MCB
XMCB_1<0> BL[0] BLB[0] VDDI VSSI WL[1] S1AHSF400W40_MCB
XMCB_1<1> BL[1] BLB[1] VDDI VSSI WL[1] S1AHSF400W40_MCB
XMCB_1<2> BL[2] BLB[2] VDDI VSSI WL[1] S1AHSF400W40_MCB
XMCB_1<3> BL[3] BLB[3] VDDI VSSI WL[1] S1AHSF400W40_MCB
XMCB_1<4> BL[4] BLB[4] VDDI VSSI WL[1] S1AHSF400W40_MCB
XMCB_1<5> BL[5] BLB[5] VDDI VSSI WL[1] S1AHSF400W40_MCB
XMCB_1<6> BL[6] BLB[6] VDDI VSSI WL[1] S1AHSF400W40_MCB
XMCB_1<7> BL[7] BLB[7] VDDI VSSI WL[1] S1AHSF400W40_MCB
.ENDS

************************************************************************
* LIBRARY NAME: N65LP_SP_CHAR
* CELL NAME:    MCB_2X4_SB_CHAR
* VIEW NAME:    SCHEMATIC
************************************************************************

.SUBCKT S1AHSF400W40_MCB_2X4_SB_CHAR BL[0] BL[1] BL[2] BL[3] BLB[0] BLB[1] BLB[2] BLB[3] 
+ VDDI VSSI WL[0] WL[1]
*.PININFO WL[0]:I WL[1]:I BL[0]:B BL[1]:B BL[2]:B BL[3]:B BLB[0]:B BLB[1]:B 
*.PININFO BLB[2]:B BLB[3]:B VDDI:B VSSI:B
XMCB_0<0> BL[0] BLB[0] VDDI VSSI WL[0] S1AHSF400W40_MCB
XMCB_0<1> BL[1] BLB[1] VDDI VSSI WL[0] S1AHSF400W40_MCB
XMCB_0<2> BL[2] BLB[2] VDDI VSSI WL[0] S1AHSF400W40_MCB
XMCB_0<3> BL[3] BLB[3] VDDI VSSI WL[0] S1AHSF400W40_MCB
XMCB_1<0> BL[0] BLB[0] VDDI VSSI WL[1] S1AHSF400W40_MCB
XMCB_1<1> BL[1] BLB[1] VDDI VSSI WL[1] S1AHSF400W40_MCB
XMCB_1<2> BL[2] BLB[2] VDDI VSSI WL[1] S1AHSF400W40_MCB
XMCB_1<3> BL[3] BLB[3] VDDI VSSI WL[1] S1AHSF400W40_MCB
.ENDS

************************************************************************
* LIBRARY NAME: N65LP_SP_CHAR
* CELL NAME:    SB_ARR_WLLD_SIM
* VIEW NAME:    SCHEMATIC
************************************************************************

.SUBCKT S1AHSF400W40_SB_ARR_WLLD_SIM CVDDI VDDHD VDDI VSSI WL_LT[0] WL_LT[1] WL_RT[0] 
+ WL_RT[1]
*.PININFO CVDDI:B VDDHD:B VDDI:B VSSI:B WL_LT[0]:B WL_LT[1]:B WL_RT[0]:B 
*.PININFO WL_RT[1]:B
XI265 NET11[0] NET11[1] NET11[2] NET11[3] NET7[0] NET7[1] NET7[2] NET7[3] 
+ NET10 NET9 NET8[0] NET8[1] S1AHSF400W40_MCB_2X4_SB_CHAR
.ENDS

************************************************************************
* LIBRARY NAME: N65LP_SP_LEAFCELL
* CELL NAME:    TKBL_EDGE
* VIEW NAME:    SCHEMATIC
************************************************************************

.SUBCKT S1AHSF400W40_TKBL_EDGE BLB_EDGE BL_EDGE CVDDI VSSI WL WL_TK TIEH
*.PININFO WL:I WL_TK:I BLB_EDGE:B BL_EDGE:B CVDDI:B VSSI:B TIEH:B
MNCHPD0 VSSI TIEH BL_TK_IN VSSI NCHPD_WISR L=0.065U W=0.140U M=1
MNCHPD1 BLB_IN BL_TK_IN VSSI VSSI NCHPD_WISR L=0.065U W=0.140U M=1
MPCHPU0 CVDDI TIEH BL_TK_IN CVDDI PCHPU_WISR L=0.065U W=0.080U M=1
MPCHPU1 TIEH BL_TK_IN CVDDI CVDDI PCHPU_WISR L=0.065U W=0.080U M=1
MNCHPG1 BLB_IN WL BLB_EDGE VSSI NCHPG_WISR L=0.075U W=0.090U M=1
MNCHPG0 BL_EDGE WL_TK BL_TK_IN VSSI NCHPG_WISR L=0.075U W=0.090U M=1
.ENDS

************************************************************************
* LIBRARY NAME: N65LP_SP_LEAFCELL
* CELL NAME:    TKBL_BCELL
* VIEW NAME:    SCHEMATIC
************************************************************************

.SUBCKT S1AHSF400W40_TKBL_BCELL BLB BL_TK CVDDI VSSI WL WL_TK TIEH
*.PININFO WL:I WL_TK:I BLB:B BL_TK:B CVDDI:B VSSI:B TIEH:B
MNCHPD1 BLB_IN BL_TK_IN VSSI VSSI NCHPD_WISR L=0.065U W=0.140U M=1
MNCHPD0 VSSI TIEH BL_TK_IN VSSI NCHPD_WISR L=0.065U W=0.140U M=1
MPCHPU0 CVDDI TIEH BL_TK_IN CVDDI PCHPU_WISR L=0.065U W=0.080U M=1
MPCHPU1 TIEH BL_TK_IN CVDDI CVDDI PCHPU_WISR L=0.065U W=0.080U M=1
MNCHPG1 BLB_IN WL BLB VSSI NCHPG_WISR L=0.075U W=0.090U M=1
MNCHPG0 BL_TK WL_TK BL_TK_IN VSSI NCHPG_WISR L=0.075U W=0.090U M=1
.ENDS

************************************************************************
* LIBRARY NAME: N65LP_SP_CHAR
* CELL NAME:    TRKNOR_CHAR
* VIEW NAME:    SCHEMATIC
************************************************************************

.SUBCKT S1AHSF400W40_TRKNOR_CHAR BLB BLB_EDGE BL_EDGE BL_TK VDDI VSSI WL WL_TK TIEH
*.PININFO WL:I WL_TK:I TIEH:I BLB:B BLB_EDGE:B BL_EDGE:B BL_TK:B VDDI:B VSSI:B
XTKBL_EDGE BLB_EDGE BL_EDGE VDDI VSSI WL WL_TK TIEH S1AHSF400W40_TKBL_EDGE
XTKBL_BCELL BLB BL_TK VDDI VSSI WL WL_TK TIEH S1AHSF400W40_TKBL_BCELL
.ENDS

************************************************************************
* LIBRARY NAME: N65LP_SP_CHAR
* CELL NAME:    TRKNORX2_CHAR
* VIEW NAME:    SCHEMATIC
************************************************************************

.SUBCKT S1AHSF400W40_TRKNORX2_CHAR BL_TK VDDI VSSI WL[0] WL[1] WL_TK[0] WL_TK[1] FLOAT1 
+ FLOAT2 FLOAT3 FLOAT4 TIEH
*.PININFO WL[0]:I WL[1]:I WL_TK[0]:I WL_TK[1]:I TIEH:I BL_TK:B VDDI:B VSSI:B 
*.PININFO FLOAT1:B FLOAT2:B FLOAT3:B FLOAT4:B
XTRKNOR_0 FLOAT4 FLOAT1 FLOAT3 BL_TK VDDI VSSI WL[0] WL_TK[0] TIEH 
+ S1AHSF400W40_TRKNOR_CHAR
XTRKNOR_1 FLOAT4 FLOAT1 FLOAT2 BL_TK VDDI VSSI WL[1] WL_TK[1] TIEH 
+ S1AHSF400W40_TRKNOR_CHAR
.ENDS

************************************************************************
* LIBRARY NAME: N65LP_SP_CHAR
* CELL NAME:    TRKNORX4_CHAR
* VIEW NAME:    SCHEMATIC
************************************************************************

.SUBCKT S1AHSF400W40_TRKNORX4_CHAR BL_TK VDDI VSSI WL[0] WL[1] WL[2] WL[3] WL_TK[0] 
+ WL_TK[1] WL_TK[2] WL_TK[3] FLOAT1[0] FLOAT1[1] FLOAT2 FLOAT3 FLOAT4[0] 
+ FLOAT4[1] TIEH
*.PININFO WL[0]:I WL[1]:I WL[2]:I WL[3]:I WL_TK[0]:I WL_TK[1]:I WL_TK[2]:I 
*.PININFO WL_TK[3]:I TIEH:I BL_TK:B VDDI:B VSSI:B FLOAT1[0]:B FLOAT1[1]:B 
*.PININFO FLOAT2:B FLOAT3:B FLOAT4[0]:B FLOAT4[1]:B
XTRKNORX2_0 BL_TK VDDI VSSI WL[0] WL[1] WL_TK[0] WL_TK[1] FLOAT1[0] NET30 
+ FLOAT3 FLOAT4[0] TIEH S1AHSF400W40_TRKNORX2_CHAR
XTRKNORX2_1 BL_TK VDDI VSSI WL[2] WL[3] WL_TK[2] WL_TK[3] FLOAT1[1] FLOAT2 
+ NET30 FLOAT4[1] TIEH S1AHSF400W40_TRKNORX2_CHAR
.ENDS

************************************************************************
* LIBRARY NAME: N65LP_SP_CHAR
* CELL NAME:    TRKNORX16_CHAR
* VIEW NAME:    SCHEMATIC
************************************************************************

.SUBCKT S1AHSF400W40_TRKNORX16_CHAR BL_TK VDDI VSSI WL[0] WL[1] WL[2] WL[3] WL[4] WL[5] 
+ WL[6] WL[7] WL[8] WL[9] WL[10] WL[11] WL[12] WL[13] WL[14] WL[15] WL_TK[0] 
+ WL_TK[1] WL_TK[2] WL_TK[3] WL_TK[4] WL_TK[5] WL_TK[6] WL_TK[7] WL_TK[8] 
+ WL_TK[9] WL_TK[10] WL_TK[11] WL_TK[12] WL_TK[13] WL_TK[14] WL_TK[15] 
+ FLOAT1[0] FLOAT1[1] FLOAT1[2] FLOAT1[3] FLOAT1[4] FLOAT1[5] FLOAT1[6] 
+ FLOAT1[7] FLOAT2 FLOAT3 FLOAT4[0] FLOAT4[1] FLOAT4[2] FLOAT4[3] FLOAT4[4] 
+ FLOAT4[5] FLOAT4[6] FLOAT4[7] TIEH
*.PININFO WL[0]:I WL[1]:I WL[2]:I WL[3]:I WL[4]:I WL[5]:I WL[6]:I WL[7]:I 
*.PININFO WL[8]:I WL[9]:I WL[10]:I WL[11]:I WL[12]:I WL[13]:I WL[14]:I 
*.PININFO WL[15]:I WL_TK[0]:I WL_TK[1]:I WL_TK[2]:I WL_TK[3]:I WL_TK[4]:I 
*.PININFO WL_TK[5]:I WL_TK[6]:I WL_TK[7]:I WL_TK[8]:I WL_TK[9]:I WL_TK[10]:I 
*.PININFO WL_TK[11]:I WL_TK[12]:I WL_TK[13]:I WL_TK[14]:I WL_TK[15]:I BL_TK:B 
*.PININFO VDDI:B VSSI:B FLOAT1[0]:B FLOAT1[1]:B FLOAT1[2]:B FLOAT1[3]:B 
*.PININFO FLOAT1[4]:B FLOAT1[5]:B FLOAT1[6]:B FLOAT1[7]:B FLOAT2:B FLOAT3:B 
*.PININFO FLOAT4[0]:B FLOAT4[1]:B FLOAT4[2]:B FLOAT4[3]:B FLOAT4[4]:B 
*.PININFO FLOAT4[5]:B FLOAT4[6]:B FLOAT4[7]:B TIEH:B
XTRKNORX4_2 BL_TK VDDI VSSI WL[8] WL[9] WL[10] WL[11] WL_TK[8] WL_TK[9] 
+ WL_TK[10] WL_TK[11] FLOAT1[4] FLOAT1[5] NET29 NET39 FLOAT4[4] FLOAT4[5] TIEH 
+ S1AHSF400W40_TRKNORX4_CHAR
XTRKNORX4_1 BL_TK VDDI VSSI WL[4] WL[5] WL[6] WL[7] WL_TK[4] WL_TK[5] WL_TK[6] 
+ WL_TK[7] FLOAT1[2] FLOAT1[3] NET39 NET49 FLOAT4[2] FLOAT4[3] TIEH 
+ S1AHSF400W40_TRKNORX4_CHAR
XTRKNORX4_3 BL_TK VDDI VSSI WL[12] WL[13] WL[14] WL[15] WL_TK[12] WL_TK[13] 
+ WL_TK[14] WL_TK[15] FLOAT1[6] FLOAT1[7] FLOAT2 NET29 FLOAT4[6] FLOAT4[7] 
+ TIEH S1AHSF400W40_TRKNORX4_CHAR
XTRKNORX4_0 BL_TK VDDI VSSI WL[0] WL[1] WL[2] WL[3] WL_TK[0] WL_TK[1] WL_TK[2] 
+ WL_TK[3] FLOAT1[0] FLOAT1[1] NET49 FLOAT3 FLOAT4[0] FLOAT4[1] TIEH 
+ S1AHSF400W40_TRKNORX4_CHAR
.ENDS

************************************************************************
* LIBRARY NAME: N65LP_SP_CHAR
* CELL NAME:    TRKNORX64_CHAR
* VIEW NAME:    SCHEMATIC
************************************************************************

.SUBCKT S1AHSF400W40_TRKNORX64_CHAR BL_TK VDDI VSSI WL[0] WL[1] WL[2] WL[3] WL[4] WL[5] 
+ WL[6] WL[7] WL[8] WL[9] WL[10] WL[11] WL[12] WL[13] WL[14] WL[15] WL[16] 
+ WL[17] WL[18] WL[19] WL[20] WL[21] WL[22] WL[23] WL[24] WL[25] WL[26] WL[27] 
+ WL[28] WL[29] WL[30] WL[31] WL[32] WL[33] WL[34] WL[35] WL[36] WL[37] WL[38] 
+ WL[39] WL[40] WL[41] WL[42] WL[43] WL[44] WL[45] WL[46] WL[47] WL[48] WL[49] 
+ WL[50] WL[51] WL[52] WL[53] WL[54] WL[55] WL[56] WL[57] WL[58] WL[59] WL[60] 
+ WL[61] WL[62] WL[63] WL_TK[0] WL_TK[1] WL_TK[2] WL_TK[3] WL_TK[4] WL_TK[5] 
+ WL_TK[6] WL_TK[7] WL_TK[8] WL_TK[9] WL_TK[10] WL_TK[11] WL_TK[12] WL_TK[13] 
+ WL_TK[14] WL_TK[15] WL_TK[16] WL_TK[17] WL_TK[18] WL_TK[19] WL_TK[20] 
+ WL_TK[21] WL_TK[22] WL_TK[23] WL_TK[24] WL_TK[25] WL_TK[26] WL_TK[27] 
+ WL_TK[28] WL_TK[29] WL_TK[30] WL_TK[31] WL_TK[32] WL_TK[33] WL_TK[34] 
+ WL_TK[35] WL_TK[36] WL_TK[37] WL_TK[38] WL_TK[39] WL_TK[40] WL_TK[41] 
+ WL_TK[42] WL_TK[43] WL_TK[44] WL_TK[45] WL_TK[46] WL_TK[47] WL_TK[48] 
+ WL_TK[49] WL_TK[50] WL_TK[51] WL_TK[52] WL_TK[53] WL_TK[54] WL_TK[55] 
+ WL_TK[56] WL_TK[57] WL_TK[58] WL_TK[59] WL_TK[60] WL_TK[61] WL_TK[62] 
+ WL_TK[63] FLOAT1[31] FLOAT1[30] FLOAT1[29] FLOAT1[28] FLOAT1[27] FLOAT1[26] 
+ FLOAT1[25] FLOAT1[24] FLOAT1[23] FLOAT1[22] FLOAT1[21] FLOAT1[20] FLOAT1[19] 
+ FLOAT1[18] FLOAT1[17] FLOAT1[16] FLOAT1[15] FLOAT1[14] FLOAT1[13] FLOAT1[12] 
+ FLOAT1[11] FLOAT1[10] FLOAT1[9] FLOAT1[8] FLOAT1[7] FLOAT1[6] FLOAT1[5] 
+ FLOAT1[4] FLOAT1[3] FLOAT1[2] FLOAT1[1] FLOAT1[0] FLOAT2 FLOAT3 FLOAT4[31] 
+ FLOAT4[30] FLOAT4[29] FLOAT4[28] FLOAT4[27] FLOAT4[26] FLOAT4[25] FLOAT4[24] 
+ FLOAT4[23] FLOAT4[22] FLOAT4[21] FLOAT4[20] FLOAT4[19] FLOAT4[18] FLOAT4[17] 
+ FLOAT4[16] FLOAT4[15] FLOAT4[14] FLOAT4[13] FLOAT4[12] FLOAT4[11] FLOAT4[10] 
+ FLOAT4[9] FLOAT4[8] FLOAT4[7] FLOAT4[6] FLOAT4[5] FLOAT4[4] FLOAT4[3] 
+ FLOAT4[2] FLOAT4[1] FLOAT4[0] TIEH
*.PININFO WL[0]:I WL[1]:I WL[2]:I WL[3]:I WL[4]:I WL[5]:I WL[6]:I WL[7]:I 
*.PININFO WL[8]:I WL[9]:I WL[10]:I WL[11]:I WL[12]:I WL[13]:I WL[14]:I 
*.PININFO WL[15]:I WL[16]:I WL[17]:I WL[18]:I WL[19]:I WL[20]:I WL[21]:I 
*.PININFO WL[22]:I WL[23]:I WL[24]:I WL[25]:I WL[26]:I WL[27]:I WL[28]:I 
*.PININFO WL[29]:I WL[30]:I WL[31]:I WL[32]:I WL[33]:I WL[34]:I WL[35]:I 
*.PININFO WL[36]:I WL[37]:I WL[38]:I WL[39]:I WL[40]:I WL[41]:I WL[42]:I 
*.PININFO WL[43]:I WL[44]:I WL[45]:I WL[46]:I WL[47]:I WL[48]:I WL[49]:I 
*.PININFO WL[50]:I WL[51]:I WL[52]:I WL[53]:I WL[54]:I WL[55]:I WL[56]:I 
*.PININFO WL[57]:I WL[58]:I WL[59]:I WL[60]:I WL[61]:I WL[62]:I WL[63]:I 
*.PININFO WL_TK[0]:I WL_TK[1]:I WL_TK[2]:I WL_TK[3]:I WL_TK[4]:I WL_TK[5]:I 
*.PININFO WL_TK[6]:I WL_TK[7]:I WL_TK[8]:I WL_TK[9]:I WL_TK[10]:I WL_TK[11]:I 
*.PININFO WL_TK[12]:I WL_TK[13]:I WL_TK[14]:I WL_TK[15]:I WL_TK[16]:I 
*.PININFO WL_TK[17]:I WL_TK[18]:I WL_TK[19]:I WL_TK[20]:I WL_TK[21]:I 
*.PININFO WL_TK[22]:I WL_TK[23]:I WL_TK[24]:I WL_TK[25]:I WL_TK[26]:I 
*.PININFO WL_TK[27]:I WL_TK[28]:I WL_TK[29]:I WL_TK[30]:I WL_TK[31]:I 
*.PININFO WL_TK[32]:I WL_TK[33]:I WL_TK[34]:I WL_TK[35]:I WL_TK[36]:I 
*.PININFO WL_TK[37]:I WL_TK[38]:I WL_TK[39]:I WL_TK[40]:I WL_TK[41]:I 
*.PININFO WL_TK[42]:I WL_TK[43]:I WL_TK[44]:I WL_TK[45]:I WL_TK[46]:I 
*.PININFO WL_TK[47]:I WL_TK[48]:I WL_TK[49]:I WL_TK[50]:I WL_TK[51]:I 
*.PININFO WL_TK[52]:I WL_TK[53]:I WL_TK[54]:I WL_TK[55]:I WL_TK[56]:I 
*.PININFO WL_TK[57]:I WL_TK[58]:I WL_TK[59]:I WL_TK[60]:I WL_TK[61]:I 
*.PININFO WL_TK[62]:I WL_TK[63]:I BL_TK:B VDDI:B VSSI:B FLOAT1[31]:B 
*.PININFO FLOAT1[30]:B FLOAT1[29]:B FLOAT1[28]:B FLOAT1[27]:B FLOAT1[26]:B 
*.PININFO FLOAT1[25]:B FLOAT1[24]:B FLOAT1[23]:B FLOAT1[22]:B FLOAT1[21]:B 
*.PININFO FLOAT1[20]:B FLOAT1[19]:B FLOAT1[18]:B FLOAT1[17]:B FLOAT1[16]:B 
*.PININFO FLOAT1[15]:B FLOAT1[14]:B FLOAT1[13]:B FLOAT1[12]:B FLOAT1[11]:B 
*.PININFO FLOAT1[10]:B FLOAT1[9]:B FLOAT1[8]:B FLOAT1[7]:B FLOAT1[6]:B 
*.PININFO FLOAT1[5]:B FLOAT1[4]:B FLOAT1[3]:B FLOAT1[2]:B FLOAT1[1]:B 
*.PININFO FLOAT1[0]:B FLOAT2:B FLOAT3:B FLOAT4[31]:B FLOAT4[30]:B FLOAT4[29]:B 
*.PININFO FLOAT4[28]:B FLOAT4[27]:B FLOAT4[26]:B FLOAT4[25]:B FLOAT4[24]:B 
*.PININFO FLOAT4[23]:B FLOAT4[22]:B FLOAT4[21]:B FLOAT4[20]:B FLOAT4[19]:B 
*.PININFO FLOAT4[18]:B FLOAT4[17]:B FLOAT4[16]:B FLOAT4[15]:B FLOAT4[14]:B 
*.PININFO FLOAT4[13]:B FLOAT4[12]:B FLOAT4[11]:B FLOAT4[10]:B FLOAT4[9]:B 
*.PININFO FLOAT4[8]:B FLOAT4[7]:B FLOAT4[6]:B FLOAT4[5]:B FLOAT4[4]:B 
*.PININFO FLOAT4[3]:B FLOAT4[2]:B FLOAT4[1]:B FLOAT4[0]:B TIEH:B
XTRKNORX16_3 BL_TK VDDI VSSI WL[48] WL[49] WL[50] WL[51] WL[52] WL[53] WL[54] 
+ WL[55] WL[56] WL[57] WL[58] WL[59] WL[60] WL[61] WL[62] WL[63] WL_TK[48] 
+ WL_TK[49] WL_TK[50] WL_TK[51] WL_TK[52] WL_TK[53] WL_TK[54] WL_TK[55] 
+ WL_TK[56] WL_TK[57] WL_TK[58] WL_TK[59] WL_TK[60] WL_TK[61] WL_TK[62] 
+ WL_TK[63] FLOAT1[24] FLOAT1[25] FLOAT1[26] FLOAT1[27] FLOAT1[28] FLOAT1[29] 
+ FLOAT1[30] FLOAT1[31] FLOAT2 NET26 FLOAT4[24] FLOAT4[25] FLOAT4[26] 
+ FLOAT4[27] FLOAT4[28] FLOAT4[29] FLOAT4[30] FLOAT4[31] TIEH S1AHSF400W40_TRKNORX16_CHAR
XTRKNORX16_2 BL_TK VDDI VSSI WL[32] WL[33] WL[34] WL[35] WL[36] WL[37] WL[38] 
+ WL[39] WL[40] WL[41] WL[42] WL[43] WL[44] WL[45] WL[46] WL[47] WL_TK[32] 
+ WL_TK[33] WL_TK[34] WL_TK[35] WL_TK[36] WL_TK[37] WL_TK[38] WL_TK[39] 
+ WL_TK[40] WL_TK[41] WL_TK[42] WL_TK[43] WL_TK[44] WL_TK[45] WL_TK[46] 
+ WL_TK[47] FLOAT1[16] FLOAT1[17] FLOAT1[18] FLOAT1[19] FLOAT1[20] FLOAT1[21] 
+ FLOAT1[22] FLOAT1[23] NET26 NET36 FLOAT4[16] FLOAT4[17] FLOAT4[18] 
+ FLOAT4[19] FLOAT4[20] FLOAT4[21] FLOAT4[22] FLOAT4[23] TIEH S1AHSF400W40_TRKNORX16_CHAR
XTRKNORX16_1 BL_TK VDDI VSSI WL[16] WL[17] WL[18] WL[19] WL[20] WL[21] WL[22] 
+ WL[23] WL[24] WL[25] WL[26] WL[27] WL[28] WL[29] WL[30] WL[31] WL_TK[16] 
+ WL_TK[17] WL_TK[18] WL_TK[19] WL_TK[20] WL_TK[21] WL_TK[22] WL_TK[23] 
+ WL_TK[24] WL_TK[25] WL_TK[26] WL_TK[27] WL_TK[28] WL_TK[29] WL_TK[30] 
+ WL_TK[31] FLOAT1[8] FLOAT1[9] FLOAT1[10] FLOAT1[11] FLOAT1[12] FLOAT1[13] 
+ FLOAT1[14] FLOAT1[15] NET36 NET47 FLOAT4[8] FLOAT4[9] FLOAT4[10] FLOAT4[11] 
+ FLOAT4[12] FLOAT4[13] FLOAT4[14] FLOAT4[15] TIEH S1AHSF400W40_TRKNORX16_CHAR
XTRKNORX16_0 BL_TK VDDI VSSI WL[0] WL[1] WL[2] WL[3] WL[4] WL[5] WL[6] WL[7] 
+ WL[8] WL[9] WL[10] WL[11] WL[12] WL[13] WL[14] WL[15] WL_TK[0] WL_TK[1] 
+ WL_TK[2] WL_TK[3] WL_TK[4] WL_TK[5] WL_TK[6] WL_TK[7] WL_TK[8] WL_TK[9] 
+ WL_TK[10] WL_TK[11] WL_TK[12] WL_TK[13] WL_TK[14] WL_TK[15] FLOAT1[0] 
+ FLOAT1[1] FLOAT1[2] FLOAT1[3] FLOAT1[4] FLOAT1[5] FLOAT1[6] FLOAT1[7] NET47 
+ FLOAT3 FLOAT4[0] FLOAT4[1] FLOAT4[2] FLOAT4[3] FLOAT4[4] FLOAT4[5] FLOAT4[6] 
+ FLOAT4[7] TIEH S1AHSF400W40_TRKNORX16_CHAR
.ENDS

************************************************************************
* LIBRARY NAME: N65LP_SP_CHAR
* CELL NAME:    TKBL_S384_CHAR
* VIEW NAME:    SCHEMATIC
************************************************************************

.SUBCKT S1AHSF400W40_TKBL_S384_CHAR BL_TK VDDI VSSI WL[0] WL[1] WL[2] WL[3] WL[4] WL[5] 
+ WL[6] WL[7] WL[8] WL[9] WL[10] WL[11] WL[12] WL[13] WL[14] WL[15] WL[16] 
+ WL[17] WL[18] WL[19] WL[20] WL[21] WL[22] WL[23] WL[24] WL[25] WL[26] WL[27] 
+ WL[28] WL[29] WL[30] WL[31] WL[32] WL[33] WL[34] WL[35] WL[36] WL[37] WL[38] 
+ WL[39] WL[40] WL[41] WL[42] WL[43] WL[44] WL[45] WL[46] WL[47] WL[48] WL[49] 
+ WL[50] WL[51] WL[52] WL[53] WL[54] WL[55] WL[56] WL[57] WL[58] WL[59] WL[60] 
+ WL[61] WL[62] WL[63] WL[64] WL[65] WL[66] WL[67] WL[68] WL[69] WL[70] WL[71] 
+ WL[72] WL[73] WL[74] WL[75] WL[76] WL[77] WL[78] WL[79] WL[80] WL[81] WL[82] 
+ WL[83] WL[84] WL[85] WL[86] WL[87] WL[88] WL[89] WL[90] WL[91] WL[92] WL[93] 
+ WL[94] WL[95] WL[96] WL[97] WL[98] WL[99] WL[100] WL[101] WL[102] WL[103] 
+ WL[104] WL[105] WL[106] WL[107] WL[108] WL[109] WL[110] WL[111] WL[112] 
+ WL[113] WL[114] WL[115] WL[116] WL[117] WL[118] WL[119] WL[120] WL[121] 
+ WL[122] WL[123] WL[124] WL[125] WL[126] WL[127] WL[128] WL[129] WL[130] 
+ WL[131] WL[132] WL[133] WL[134] WL[135] WL[136] WL[137] WL[138] WL[139] 
+ WL[140] WL[141] WL[142] WL[143] WL[144] WL[145] WL[146] WL[147] WL[148] 
+ WL[149] WL[150] WL[151] WL[152] WL[153] WL[154] WL[155] WL[156] WL[157] 
+ WL[158] WL[159] WL[160] WL[161] WL[162] WL[163] WL[164] WL[165] WL[166] 
+ WL[167] WL[168] WL[169] WL[170] WL[171] WL[172] WL[173] WL[174] WL[175] 
+ WL[176] WL[177] WL[178] WL[179] WL[180] WL[181] WL[182] WL[183] WL[184] 
+ WL[185] WL[186] WL[187] WL[188] WL[189] WL[190] WL[191] WL[192] WL[193] 
+ WL[194] WL[195] WL[196] WL[197] WL[198] WL[199] WL[200] WL[201] WL[202] 
+ WL[203] WL[204] WL[205] WL[206] WL[207] WL[208] WL[209] WL[210] WL[211] 
+ WL[212] WL[213] WL[214] WL[215] WL[216] WL[217] WL[218] WL[219] WL[220] 
+ WL[221] WL[222] WL[223] WL[224] WL[225] WL[226] WL[227] WL[228] WL[229] 
+ WL[230] WL[231] WL[232] WL[233] WL[234] WL[235] WL[236] WL[237] WL[238] 
+ WL[239] WL[240] WL[241] WL[242] WL[243] WL[244] WL[245] WL[246] WL[247] 
+ WL[248] WL[249] WL[250] WL[251] WL[252] WL[253] WL[254] WL[255] WL[256] 
+ WL[257] WL[258] WL[259] WL[260] WL[261] WL[262] WL[263] WL[264] WL[265] 
+ WL[266] WL[267] WL[268] WL[269] WL[270] WL[271] WL[272] WL[273] WL[274] 
+ WL[275] WL[276] WL[277] WL[278] WL[279] WL[280] WL[281] WL[282] WL[283] 
+ WL[284] WL[285] WL[286] WL[287] WL[288] WL[289] WL[290] WL[291] WL[292] 
+ WL[293] WL[294] WL[295] WL[296] WL[297] WL[298] WL[299] WL[300] WL[301] 
+ WL[302] WL[303] WL[304] WL[305] WL[306] WL[307] WL[308] WL[309] WL[310] 
+ WL[311] WL[312] WL[313] WL[314] WL[315] WL[316] WL[317] WL[318] WL[319] 
+ WL[320] WL[321] WL[322] WL[323] WL[324] WL[325] WL[326] WL[327] WL[328] 
+ WL[329] WL[330] WL[331] WL[332] WL[333] WL[334] WL[335] WL[336] WL[337] 
+ WL[338] WL[339] WL[340] WL[341] WL[342] WL[343] WL[344] WL[345] WL[346] 
+ WL[347] WL[348] WL[349] WL[350] WL[351] WL[352] WL[353] WL[354] WL[355] 
+ WL[356] WL[357] WL[358] WL[359] WL[360] WL[361] WL[362] WL[363] WL[364] 
+ WL[365] WL[366] WL[367] WL[368] WL[369] WL[370] WL[371] WL[372] WL[373] 
+ WL[374] WL[375] WL[376] WL[377] WL[378] WL[379] WL[380] WL[381] WL[382] 
+ WL[383] WL[384] WL[385] WL[386] WL[387] WL[388] WL[389] WL[390] WL[391] 
+ WL[392] WL[393] WL[394] WL[395] WL[396] WL[397] WL[398] WL[399] WL[400] 
+ WL[401] WL[402] WL[403] WL[404] WL[405] WL[406] WL[407] WL[408] WL[409] 
+ WL[410] WL[411] WL[412] WL[413] WL[414] WL[415] WL[416] WL[417] WL[418] 
+ WL[419] WL[420] WL[421] WL[422] WL[423] WL[424] WL[425] WL[426] WL[427] 
+ WL[428] WL[429] WL[430] WL[431] WL[432] WL[433] WL[434] WL[435] WL[436] 
+ WL[437] WL[438] WL[439] WL[440] WL[441] WL[442] WL[443] WL[444] WL[445] 
+ WL[446] WL[447] WL[448] WL[449] WL[450] WL[451] WL[452] WL[453] WL[454] 
+ WL[455] WL[456] WL[457] WL[458] WL[459] WL[460] WL[461] WL[462] WL[463] 
+ WL[464] WL[465] WL[466] WL[467] WL[468] WL[469] WL[470] WL[471] WL[472] 
+ WL[473] WL[474] WL[475] WL[476] WL[477] WL[478] WL[479] WL[480] WL[481] 
+ WL[482] WL[483] WL[484] WL[485] WL[486] WL[487] WL[488] WL[489] WL[490] 
+ WL[491] WL[492] WL[493] WL[494] WL[495] WL[496] WL[497] WL[498] WL[499] 
+ WL[500] WL[501] WL[502] WL[503] WL[504] WL[505] WL[506] WL[507] WL[508] 
+ WL[509] WL[510] WL[511] WL_TK[0] WL_TK[1] WL_TK[2] WL_TK[3] WL_TK[4] 
+ WL_TK[5] WL_TK[6] WL_TK[7] WL_TK[8] WL_TK[9] WL_TK[10] WL_TK[11] WL_TK[12] 
+ WL_TK[13] WL_TK[14] WL_TK[15] WL_TK[16] WL_TK[17] WL_TK[18] WL_TK[19] 
+ WL_TK[20] WL_TK[21] WL_TK[22] WL_TK[23] WL_TK[24] WL_TK[25] WL_TK[26] 
+ WL_TK[27] WL_TK[28] WL_TK[29] WL_TK[30] WL_TK[31] WL_TK[32] WL_TK[33] 
+ WL_TK[34] WL_TK[35] WL_TK[36] WL_TK[37] WL_TK[38] WL_TK[39] WL_TK[40] 
+ WL_TK[41] WL_TK[42] WL_TK[43] WL_TK[44] WL_TK[45] WL_TK[46] WL_TK[47] 
+ WL_TK[48] WL_TK[49] WL_TK[50] WL_TK[51] WL_TK[52] WL_TK[53] WL_TK[54] 
+ WL_TK[55] WL_TK[56] WL_TK[57] WL_TK[58] WL_TK[59] WL_TK[60] WL_TK[61] 
+ WL_TK[62] WL_TK[63] WL_TK[64] WL_TK[65] WL_TK[66] WL_TK[67] WL_TK[68] 
+ WL_TK[69] WL_TK[70] WL_TK[71] WL_TK[72] WL_TK[73] WL_TK[74] WL_TK[75] 
+ WL_TK[76] WL_TK[77] WL_TK[78] WL_TK[79] WL_TK[80] WL_TK[81] WL_TK[82] 
+ WL_TK[83] WL_TK[84] WL_TK[85] WL_TK[86] WL_TK[87] WL_TK[88] WL_TK[89] 
+ WL_TK[90] WL_TK[91] WL_TK[92] WL_TK[93] WL_TK[94] WL_TK[95] WL_TK[96] 
+ WL_TK[97] WL_TK[98] WL_TK[99] WL_TK[100] WL_TK[101] WL_TK[102] WL_TK[103] 
+ WL_TK[104] WL_TK[105] WL_TK[106] WL_TK[107] WL_TK[108] WL_TK[109] WL_TK[110] 
+ WL_TK[111] WL_TK[112] WL_TK[113] WL_TK[114] WL_TK[115] WL_TK[116] WL_TK[117] 
+ WL_TK[118] WL_TK[119] WL_TK[120] WL_TK[121] WL_TK[122] WL_TK[123] WL_TK[124] 
+ WL_TK[125] WL_TK[126] WL_TK[127] WL_TK[128] WL_TK[129] WL_TK[130] WL_TK[131] 
+ WL_TK[132] WL_TK[133] WL_TK[134] WL_TK[135] WL_TK[136] WL_TK[137] WL_TK[138] 
+ WL_TK[139] WL_TK[140] WL_TK[141] WL_TK[142] WL_TK[143] WL_TK[144] WL_TK[145] 
+ WL_TK[146] WL_TK[147] WL_TK[148] WL_TK[149] WL_TK[150] WL_TK[151] WL_TK[152] 
+ WL_TK[153] WL_TK[154] WL_TK[155] WL_TK[156] WL_TK[157] WL_TK[158] WL_TK[159] 
+ WL_TK[160] WL_TK[161] WL_TK[162] WL_TK[163] WL_TK[164] WL_TK[165] WL_TK[166] 
+ WL_TK[167] WL_TK[168] WL_TK[169] WL_TK[170] WL_TK[171] WL_TK[172] WL_TK[173] 
+ WL_TK[174] WL_TK[175] WL_TK[176] WL_TK[177] WL_TK[178] WL_TK[179] WL_TK[180] 
+ WL_TK[181] WL_TK[182] WL_TK[183] WL_TK[184] WL_TK[185] WL_TK[186] WL_TK[187] 
+ WL_TK[188] WL_TK[189] WL_TK[190] WL_TK[191] WL_TK[192] WL_TK[193] WL_TK[194] 
+ WL_TK[195] WL_TK[196] WL_TK[197] WL_TK[198] WL_TK[199] WL_TK[200] WL_TK[201] 
+ WL_TK[202] WL_TK[203] WL_TK[204] WL_TK[205] WL_TK[206] WL_TK[207] WL_TK[208] 
+ WL_TK[209] WL_TK[210] WL_TK[211] WL_TK[212] WL_TK[213] WL_TK[214] WL_TK[215] 
+ WL_TK[216] WL_TK[217] WL_TK[218] WL_TK[219] WL_TK[220] WL_TK[221] WL_TK[222] 
+ WL_TK[223] WL_TK[224] WL_TK[225] WL_TK[226] WL_TK[227] WL_TK[228] WL_TK[229] 
+ WL_TK[230] WL_TK[231] WL_TK[232] WL_TK[233] WL_TK[234] WL_TK[235] WL_TK[236] 
+ WL_TK[237] WL_TK[238] WL_TK[239] WL_TK[240] WL_TK[241] WL_TK[242] WL_TK[243] 
+ WL_TK[244] WL_TK[245] WL_TK[246] WL_TK[247] WL_TK[248] WL_TK[249] WL_TK[250] 
+ WL_TK[251] WL_TK[252] WL_TK[253] WL_TK[254] WL_TK[255] WL_TK[256] WL_TK[257] 
+ WL_TK[258] WL_TK[259] WL_TK[260] WL_TK[261] WL_TK[262] WL_TK[263] WL_TK[264] 
+ WL_TK[265] WL_TK[266] WL_TK[267] WL_TK[268] WL_TK[269] WL_TK[270] WL_TK[271] 
+ WL_TK[272] WL_TK[273] WL_TK[274] WL_TK[275] WL_TK[276] WL_TK[277] WL_TK[278] 
+ WL_TK[279] WL_TK[280] WL_TK[281] WL_TK[282] WL_TK[283] WL_TK[284] WL_TK[285] 
+ WL_TK[286] WL_TK[287] WL_TK[288] WL_TK[289] WL_TK[290] WL_TK[291] WL_TK[292] 
+ WL_TK[293] WL_TK[294] WL_TK[295] WL_TK[296] WL_TK[297] WL_TK[298] WL_TK[299] 
+ WL_TK[300] WL_TK[301] WL_TK[302] WL_TK[303] WL_TK[304] WL_TK[305] WL_TK[306] 
+ WL_TK[307] WL_TK[308] WL_TK[309] WL_TK[310] WL_TK[311] WL_TK[312] WL_TK[313] 
+ WL_TK[314] WL_TK[315] WL_TK[316] WL_TK[317] WL_TK[318] WL_TK[319] WL_TK[320] 
+ WL_TK[321] WL_TK[322] WL_TK[323] WL_TK[324] WL_TK[325] WL_TK[326] WL_TK[327] 
+ WL_TK[328] WL_TK[329] WL_TK[330] WL_TK[331] WL_TK[332] WL_TK[333] WL_TK[334] 
+ WL_TK[335] WL_TK[336] WL_TK[337] WL_TK[338] WL_TK[339] WL_TK[340] WL_TK[341] 
+ WL_TK[342] WL_TK[343] WL_TK[344] WL_TK[345] WL_TK[346] WL_TK[347] WL_TK[348] 
+ WL_TK[349] WL_TK[350] WL_TK[351] WL_TK[352] WL_TK[353] WL_TK[354] WL_TK[355] 
+ WL_TK[356] WL_TK[357] WL_TK[358] WL_TK[359] WL_TK[360] WL_TK[361] WL_TK[362] 
+ WL_TK[363] WL_TK[364] WL_TK[365] WL_TK[366] WL_TK[367] WL_TK[368] WL_TK[369] 
+ WL_TK[370] WL_TK[371] WL_TK[372] WL_TK[373] WL_TK[374] WL_TK[375] WL_TK[376] 
+ WL_TK[377] WL_TK[378] WL_TK[379] WL_TK[380] WL_TK[381] WL_TK[382] WL_TK[383] 
+ WL_TK[384] WL_TK[385] WL_TK[386] WL_TK[387] WL_TK[388] WL_TK[389] WL_TK[390] 
+ WL_TK[391] WL_TK[392] WL_TK[393] WL_TK[394] WL_TK[395] WL_TK[396] WL_TK[397] 
+ WL_TK[398] WL_TK[399] WL_TK[400] WL_TK[401] WL_TK[402] WL_TK[403] WL_TK[404] 
+ WL_TK[405] WL_TK[406] WL_TK[407] WL_TK[408] WL_TK[409] WL_TK[410] WL_TK[411] 
+ WL_TK[412] WL_TK[413] WL_TK[414] WL_TK[415] WL_TK[416] WL_TK[417] WL_TK[418] 
+ WL_TK[419] WL_TK[420] WL_TK[421] WL_TK[422] WL_TK[423] WL_TK[424] WL_TK[425] 
+ WL_TK[426] WL_TK[427] WL_TK[428] WL_TK[429] WL_TK[430] WL_TK[431] WL_TK[432] 
+ WL_TK[433] WL_TK[434] WL_TK[435] WL_TK[436] WL_TK[437] WL_TK[438] WL_TK[439] 
+ WL_TK[440] WL_TK[441] WL_TK[442] WL_TK[443] WL_TK[444] WL_TK[445] WL_TK[446] 
+ WL_TK[447] WL_TK[448] WL_TK[449] WL_TK[450] WL_TK[451] WL_TK[452] WL_TK[453] 
+ WL_TK[454] WL_TK[455] WL_TK[456] WL_TK[457] WL_TK[458] WL_TK[459] WL_TK[460] 
+ WL_TK[461] WL_TK[462] WL_TK[463] WL_TK[464] WL_TK[465] WL_TK[466] WL_TK[467] 
+ WL_TK[468] WL_TK[469] WL_TK[470] WL_TK[471] WL_TK[472] WL_TK[473] WL_TK[474] 
+ WL_TK[475] WL_TK[476] WL_TK[477] WL_TK[478] WL_TK[479] WL_TK[480] WL_TK[481] 
+ WL_TK[482] WL_TK[483] WL_TK[484] WL_TK[485] WL_TK[486] WL_TK[487] WL_TK[488] 
+ WL_TK[489] WL_TK[490] WL_TK[491] WL_TK[492] WL_TK[493] WL_TK[494] WL_TK[495] 
+ WL_TK[496] WL_TK[497] WL_TK[498] WL_TK[499] WL_TK[500] WL_TK[501] WL_TK[502] 
+ WL_TK[503] WL_TK[504] WL_TK[505] WL_TK[506] WL_TK[507] WL_TK[508] WL_TK[509] 
+ WL_TK[510] WL_TK[511] TIEH TIEL
*.PININFO BL_TK:B VDDI:B VSSI:B WL[0]:B WL[1]:B WL[2]:B WL[3]:B WL[4]:B 
*.PININFO WL[5]:B WL[6]:B WL[7]:B WL[8]:B WL[9]:B WL[10]:B WL[11]:B WL[12]:B 
*.PININFO WL[13]:B WL[14]:B WL[15]:B WL[16]:B WL[17]:B WL[18]:B WL[19]:B 
*.PININFO WL[20]:B WL[21]:B WL[22]:B WL[23]:B WL[24]:B WL[25]:B WL[26]:B 